<?xml version='1.0' encoding='UTF-8'?>
<routes>
  <vType id="car" accel="2.6" decel="4.5" sigma="0.5" length="5" maxSpeed="13.89" vClass="passenger"/>
  <vType id="truck" accel="1.2" decel="3.5" sigma="0.5" length="10.5" maxSpeed="12.5" vClass="truck"/>
  <vType id="bus" accel="1.3" decel="4" sigma="0.5" length="12" maxSpeed="12.5" vClass="bus"/>
  <flow id="cars_0" type="car" begin="0" end="1200" number="151" from="-222151618#1" to="-1176470383#0" departLane="best" departSpeed="max"/>
  <flow id="cars_1" type="car" begin="0" end="1200" number="260" from="-222151618#1" to="-222151619#1" departLane="best" departSpeed="max"/>
  <flow id="cars_2" type="car" begin="0" end="1200" number="135" from="-222151618#1" to="222151622#1" departLane="best" departSpeed="max"/>
  <flow id="cars_3" type="car" begin="0" end="1200" number="106" from="222151619#1" to="222151622#1" departLane="best" departSpeed="max"/>
  <flow id="cars_4" type="car" begin="0" end="1200" number="317" from="222151619#1" to="222151618#1" departLane="best" departSpeed="max"/>
  <flow id="cars_5" type="car" begin="0" end="1200" number="60" from="222151619#1" to="-1176470383#0" departLane="best" departSpeed="max"/>
  <flow id="cars_6" type="car" begin="0" end="1200" number="259" from="222151621" to="-222151619#1" departLane="best" departSpeed="max"/>
  <flow id="cars_7" type="car" begin="0" end="1200" number="1037" from="222151621" to="222151622#1" departLane="best" departSpeed="max"/>
  <flow id="cars_8" type="car" begin="0" end="1200" number="69" from="222151621" to="222151618#1" departLane="best" departSpeed="max"/>
  <flow id="cars_9" type="car" begin="0" end="1200" number="72" from="-222151622#1" to="222151618#1" departLane="best" departSpeed="max"/>
  <flow id="cars_10" type="car" begin="0" end="1200" number="1097" from="-222151622#1" to="-1176470383#0" departLane="best" departSpeed="max"/>
  <flow id="cars_11" type="car" begin="0" end="1200" number="2" from="-222151622#1" to="-222151619#1" departLane="best" departSpeed="max"/>
  <flow id="trucks_12" type="truck" begin="0" end="1200" number="3" from="-222151618#1" to="-1176470383#0" departLane="best" departSpeed="max"/>
  <flow id="trucks_13" type="truck" begin="0" end="1200" number="8" from="-222151618#1" to="-222151619#1" departLane="best" departSpeed="max"/>
  <flow id="trucks_14" type="truck" begin="0" end="1200" number="3" from="-222151618#1" to="222151622#1" departLane="best" departSpeed="max"/>
  <flow id="trucks_15" type="truck" begin="0" end="1200" number="4" from="222151619#1" to="222151622#1" departLane="best" departSpeed="max"/>
  <flow id="trucks_16" type="truck" begin="0" end="1200" number="2" from="222151619#1" to="222151618#1" departLane="best" departSpeed="max"/>
  <flow id="trucks_17" type="truck" begin="0" end="1200" number="11" from="222151621" to="-222151619#1" departLane="best" departSpeed="max"/>
  <flow id="trucks_18" type="truck" begin="0" end="1200" number="27" from="222151621" to="222151622#1" departLane="best" departSpeed="max"/>
  <flow id="trucks_19" type="truck" begin="0" end="1200" number="6" from="222151621" to="222151618#1" departLane="best" departSpeed="max"/>
  <flow id="trucks_20" type="truck" begin="0" end="1200" number="6" from="-222151622#1" to="222151618#1" departLane="best" departSpeed="max"/>
  <flow id="trucks_21" type="truck" begin="0" end="1200" number="34" from="-222151622#1" to="-1176470383#0" departLane="best" departSpeed="max"/>
  <flow id="buses_22" type="bus" begin="0" end="1200" number="1" from="-222151618#1" to="-1176470383#0" departLane="best" departSpeed="max"/>
  <flow id="buses_23" type="bus" begin="0" end="1200" number="2" from="-222151618#1" to="-222151619#1" departLane="best" departSpeed="max"/>
  <flow id="buses_24" type="bus" begin="0" end="1200" number="2" from="-222151618#1" to="222151622#1" departLane="best" departSpeed="max"/>
  <flow id="buses_25" type="bus" begin="0" end="1200" number="5" from="222151619#1" to="222151618#1" departLane="best" departSpeed="max"/>
  <flow id="buses_26" type="bus" begin="0" end="1200" number="1" from="222151621" to="-222151619#1" departLane="best" departSpeed="max"/>
  <flow id="buses_27" type="bus" begin="0" end="1200" number="11" from="222151621" to="222151622#1" departLane="best" departSpeed="max"/>
  <flow id="buses_28" type="bus" begin="0" end="1200" number="1" from="222151621" to="222151618#1" departLane="best" departSpeed="max"/>
  <flow id="buses_29" type="bus" begin="0" end="1200" number="7" from="-222151622#1" to="222151618#1" departLane="best" departSpeed="max"/>
  <flow id="buses_30" type="bus" begin="0" end="1200" number="4" from="-222151622#1" to="-1176470383#0" departLane="best" departSpeed="max"/>
  <personFlow id="ped_0" begin="0" end="1200" number="1242">
    <walk from=":cluster_29696843_393551252_393552059_394512440_#1more_c3" to="1466927754#1"/>
  </personFlow>
  <personFlow id="ped_1" begin="0" end="1200" number="2067">
    <walk from=":cluster_29696843_393551252_393552059_394512440_#1more_c1" to=":cluster_29696843_393551252_393552059_394512440_#1more_w3"/>
  </personFlow>
  <personFlow id="ped_2" begin="0" end="1200" number="550">
    <walk from=":cluster_29696843_393551252_393552059_394512440_#1more_c2" to="681166976#1"/>
  </personFlow>
  <personFlow id="ped_3" begin="0" end="1200" number="949">
    <walk from=":cluster_29696843_393551252_393552059_394512440_#1more_c0" to=":cluster_29696843_393551252_393552059_394512440_#1more_w1"/>
  </personFlow>
  <flow id="cars_31" type="car" begin="0" end="1200" number="249" from="-445865882#0" to="-493830471#6" departLane="best" departSpeed="max"/>
  <flow id="cars_32" type="car" begin="0" end="1200" number="746" from="-445865882#0" to="-1096900277#2" departLane="best" departSpeed="max"/>
  <flow id="cars_33" type="car" begin="0" end="1200" number="15" from="-445865882#0" to="493830469#1" departLane="best" departSpeed="max"/>
  <flow id="cars_34" type="car" begin="0" end="1200" number="184" from="1096900277#0" to="493830469#1" departLane="best" departSpeed="max"/>
  <flow id="cars_35" type="car" begin="0" end="1200" number="93" from="1096900277#0" to="-493830471#6" departLane="best" departSpeed="max"/>
  <flow id="cars_36" type="car" begin="0" end="1200" number="335" from="493830471#5" to="-1096900277#2" departLane="best" departSpeed="max"/>
  <flow id="cars_37" type="car" begin="0" end="1200" number="636" from="493830471#5" to="493830469#1" departLane="best" departSpeed="max"/>
  <flow id="cars_38" type="car" begin="0" end="1200" number="115" from="493830471#5" to="851809955#1" departLane="best" departSpeed="max"/>
  <flow id="cars_39" type="car" begin="0" end="1200" number="132" from="-493830469#2" to="851809955#1" departLane="best" departSpeed="max"/>
  <flow id="cars_40" type="car" begin="0" end="1200" number="540" from="-493830469#2" to="-493830471#6" departLane="best" departSpeed="max"/>
  <flow id="cars_41" type="car" begin="0" end="1200" number="143" from="-493830469#2" to="-1096900277#2" departLane="best" departSpeed="max"/>
  <flow id="trucks_42" type="truck" begin="0" end="1200" number="12" from="-445865882#0" to="-493830471#6" departLane="best" departSpeed="max"/>
  <flow id="trucks_43" type="truck" begin="0" end="1200" number="33" from="-445865882#0" to="-1096900277#2" departLane="best" departSpeed="max"/>
  <flow id="trucks_44" type="truck" begin="0" end="1200" number="4" from="-445865882#0" to="493830469#1" departLane="best" departSpeed="max"/>
  <flow id="trucks_45" type="truck" begin="0" end="1200" number="4" from="1096900277#0" to="493830469#1" departLane="best" departSpeed="max"/>
  <flow id="trucks_46" type="truck" begin="0" end="1200" number="6" from="1096900277#0" to="-493830471#6" departLane="best" departSpeed="max"/>
  <flow id="trucks_47" type="truck" begin="0" end="1200" number="11" from="493830471#5" to="-1096900277#2" departLane="best" departSpeed="max"/>
  <flow id="trucks_48" type="truck" begin="0" end="1200" number="24" from="493830471#5" to="493830469#1" departLane="best" departSpeed="max"/>
  <flow id="trucks_49" type="truck" begin="0" end="1200" number="7" from="493830471#5" to="851809955#1" departLane="best" departSpeed="max"/>
  <flow id="trucks_50" type="truck" begin="0" end="1200" number="10" from="-493830469#2" to="851809955#1" departLane="best" departSpeed="max"/>
  <flow id="trucks_51" type="truck" begin="0" end="1200" number="17" from="-493830469#2" to="-493830471#6" departLane="best" departSpeed="max"/>
  <flow id="trucks_52" type="truck" begin="0" end="1200" number="5" from="-493830469#2" to="-1096900277#2" departLane="best" departSpeed="max"/>
  <flow id="buses_53" type="bus" begin="0" end="1200" number="1" from="-445865882#0" to="-493830471#6" departLane="best" departSpeed="max"/>
  <flow id="buses_54" type="bus" begin="0" end="1200" number="2" from="-445865882#0" to="-1096900277#2" departLane="best" departSpeed="max"/>
  <flow id="buses_55" type="bus" begin="0" end="1200" number="1" from="-445865882#0" to="493830469#1" departLane="best" departSpeed="max"/>
  <flow id="buses_56" type="bus" begin="0" end="1200" number="1" from="1096900277#0" to="493830469#1" departLane="best" departSpeed="max"/>
  <flow id="buses_57" type="bus" begin="0" end="1200" number="2" from="493830471#5" to="-1096900277#2" departLane="best" departSpeed="max"/>
  <flow id="buses_58" type="bus" begin="0" end="1200" number="3" from="493830471#5" to="493830469#1" departLane="best" departSpeed="max"/>
  <flow id="buses_59" type="bus" begin="0" end="1200" number="2" from="493830471#5" to="851809955#1" departLane="best" departSpeed="max"/>
  <flow id="buses_60" type="bus" begin="0" end="1200" number="2" from="-493830469#2" to="-493830471#6" departLane="best" departSpeed="max"/>
  <flow id="buses_61" type="bus" begin="0" end="1200" number="1" from="-493830469#2" to="-1096900277#2" departLane="best" departSpeed="max"/>
  <personFlow id="ped_4" begin="0" end="1200" number="844">
    <walk from=":cluster_21631723_393551231_393552095_401526123_#1more_c3" to="544576271#3"/>
  </personFlow>
  <personFlow id="ped_5" begin="0" end="1200" number="583">
    <walk from=":cluster_21631723_393551231_393552095_401526123_#1more_c1" to="544576268#4"/>
  </personFlow>
  <personFlow id="ped_6" begin="0" end="1200" number="617">
    <walk from=":cluster_21631723_393551231_393552095_401526123_#1more_c2" to="544576269#3"/>
  </personFlow>
  <personFlow id="ped_7" begin="0" end="1200" number="656">
    <walk from=":cluster_21631723_393551231_393552095_401526123_#1more_c0" to="544576266#3"/>
  </personFlow>
  <flow id="cars_62" type="car" begin="0" end="1200" number="144" from="-4651746#1" to="28823583#1" departLane="best" departSpeed="max"/>
  <flow id="cars_63" type="car" begin="0" end="1200" number="830" from="-4651746#1" to="-5686834#2" departLane="best" departSpeed="max"/>
  <flow id="cars_64" type="car" begin="0" end="1200" number="153" from="-4651746#1" to="28823582#1" departLane="best" departSpeed="max"/>
  <flow id="cars_65" type="car" begin="0" end="1200" number="158" from="5686834#2" to="28823582#1" departLane="best" departSpeed="max"/>
  <flow id="cars_66" type="car" begin="0" end="1200" number="1249" from="5686834#2" to="4651746#1" departLane="best" departSpeed="max"/>
  <flow id="cars_67" type="car" begin="0" end="1200" number="248" from="5686834#2" to="28823583#1" departLane="best" departSpeed="max"/>
  <flow id="cars_68" type="car" begin="0" end="1200" number="236" from="445862068#4" to="-5686834#2" departLane="best" departSpeed="max"/>
  <flow id="cars_69" type="car" begin="0" end="1200" number="967" from="445862068#4" to="28823582#1" departLane="best" departSpeed="max"/>
  <flow id="cars_70" type="car" begin="0" end="1200" number="24" from="445862068#4" to="4651746#1" departLane="best" departSpeed="max"/>
  <flow id="cars_71" type="car" begin="0" end="1200" number="140" from="30759232#0" to="4651746#1" departLane="best" departSpeed="max"/>
  <flow id="cars_72" type="car" begin="0" end="1200" number="772" from="30759232#0" to="28823583#1" departLane="best" departSpeed="max"/>
  <flow id="cars_73" type="car" begin="0" end="1200" number="33" from="30759232#0" to="-5686834#2" departLane="best" departSpeed="max"/>
  <flow id="trucks_74" type="truck" begin="0" end="1200" number="7" from="-4651746#1" to="28823583#1" departLane="best" departSpeed="max"/>
  <flow id="trucks_75" type="truck" begin="0" end="1200" number="37" from="-4651746#1" to="-5686834#2" departLane="best" departSpeed="max"/>
  <flow id="trucks_76" type="truck" begin="0" end="1200" number="8" from="-4651746#1" to="28823582#1" departLane="best" departSpeed="max"/>
  <flow id="trucks_77" type="truck" begin="0" end="1200" number="9" from="5686834#2" to="28823582#1" departLane="best" departSpeed="max"/>
  <flow id="trucks_78" type="truck" begin="0" end="1200" number="45" from="5686834#2" to="4651746#1" departLane="best" departSpeed="max"/>
  <flow id="trucks_79" type="truck" begin="0" end="1200" number="11" from="5686834#2" to="28823583#1" departLane="best" departSpeed="max"/>
  <flow id="trucks_80" type="truck" begin="0" end="1200" number="12" from="445862068#4" to="-5686834#2" departLane="best" departSpeed="max"/>
  <flow id="trucks_81" type="truck" begin="0" end="1200" number="27" from="445862068#4" to="28823582#1" departLane="best" departSpeed="max"/>
  <flow id="trucks_82" type="truck" begin="0" end="1200" number="1" from="445862068#4" to="4651746#1" departLane="best" departSpeed="max"/>
  <flow id="trucks_83" type="truck" begin="0" end="1200" number="8" from="30759232#0" to="4651746#1" departLane="best" departSpeed="max"/>
  <flow id="trucks_84" type="truck" begin="0" end="1200" number="24" from="30759232#0" to="28823583#1" departLane="best" departSpeed="max"/>
  <flow id="buses_85" type="bus" begin="0" end="1200" number="1" from="-4651746#1" to="28823583#1" departLane="best" departSpeed="max"/>
  <flow id="buses_86" type="bus" begin="0" end="1200" number="10" from="-4651746#1" to="-5686834#2" departLane="best" departSpeed="max"/>
  <flow id="buses_87" type="bus" begin="0" end="1200" number="2" from="-4651746#1" to="28823582#1" departLane="best" departSpeed="max"/>
  <flow id="buses_88" type="bus" begin="0" end="1200" number="12" from="5686834#2" to="4651746#1" departLane="best" departSpeed="max"/>
  <flow id="buses_89" type="bus" begin="0" end="1200" number="1" from="445862068#4" to="-5686834#2" departLane="best" departSpeed="max"/>
  <flow id="buses_90" type="bus" begin="0" end="1200" number="7" from="445862068#4" to="28823582#1" departLane="best" departSpeed="max"/>
  <flow id="buses_91" type="bus" begin="0" end="1200" number="1" from="30759232#0" to="4651746#1" departLane="best" departSpeed="max"/>
  <flow id="buses_92" type="bus" begin="0" end="1200" number="6" from="30759232#0" to="28823583#1" departLane="best" departSpeed="max"/>
  <personFlow id="ped_8" begin="0" end="1200" number="1928">
    <walk from=":cluster_25629241_25629242_393547020_393547032_#4more_c4" to="1466927746#1"/>
  </personFlow>
  <personFlow id="ped_9" begin="0" end="1200" number="2253">
    <walk from=":cluster_25629241_25629242_393547020_393547032_#4more_c1" to=":cluster_25629241_25629242_393547020_393547032_#4more_c2"/>
  </personFlow>
  <personFlow id="ped_10" begin="0" end="1200" number="2586">
    <walk from=":cluster_25629241_25629242_393547020_393547032_#4more_c3" to="1466927747#1"/>
  </personFlow>
  <personFlow id="ped_11" begin="0" end="1200" number="2513">
    <walk from=":cluster_25629241_25629242_393547020_393547032_#4more_c0" to="1466927748#1"/>
  </personFlow>
  <flow id="cars_93" type="car" begin="0" end="1200" number="54" from="-547861653#3" to="-547861653#0" departLane="best" departSpeed="max"/>
  <flow id="cars_94" type="car" begin="0" end="1200" number="53" from="-547861653#3" to="541564301#1" departLane="best" departSpeed="max"/>
  <flow id="cars_95" type="car" begin="0" end="1200" number="158" from="547861653#0" to="541564301#1" departLane="best" departSpeed="max"/>
  <flow id="cars_96" type="car" begin="0" end="1200" number="5" from="547861653#0" to="547861653#3" departLane="best" departSpeed="max"/>
  <flow id="cars_97" type="car" begin="0" end="1200" number="2" from="541564302#2" to="-547861653#0" departLane="best" departSpeed="max"/>
  <flow id="cars_98" type="car" begin="0" end="1200" number="988" from="541564302#2" to="541564301#1" departLane="best" departSpeed="max"/>
  <flow id="cars_99" type="car" begin="0" end="1200" number="95" from="541564302#2" to="547861653#3" departLane="best" departSpeed="max"/>
  <flow id="cars_100" type="car" begin="0" end="1200" number="64" from="-541564301#1" to="547861653#3" departLane="best" departSpeed="max"/>
  <flow id="cars_101" type="car" begin="0" end="1200" number="2" from="-541564301#1" to="-547861653#0" departLane="best" departSpeed="max"/>
  <flow id="trucks_102" type="truck" begin="0" end="1200" number="2" from="-547861653#3" to="-547861653#0" departLane="best" departSpeed="max"/>
  <flow id="trucks_103" type="truck" begin="0" end="1200" number="2" from="-547861653#3" to="541564301#1" departLane="best" departSpeed="max"/>
  <flow id="trucks_104" type="truck" begin="0" end="1200" number="6" from="547861653#0" to="541564301#1" departLane="best" departSpeed="max"/>
  <flow id="trucks_105" type="truck" begin="0" end="1200" number="39" from="541564302#2" to="541564301#1" departLane="best" departSpeed="max"/>
  <flow id="trucks_106" type="truck" begin="0" end="1200" number="4" from="541564302#2" to="547861653#3" departLane="best" departSpeed="max"/>
  <flow id="trucks_107" type="truck" begin="0" end="1200" number="3" from="-541564301#1" to="547861653#3" departLane="best" departSpeed="max"/>
  <flow id="buses_108" type="bus" begin="0" end="1200" number="1" from="547861653#0" to="541564301#1" departLane="best" departSpeed="max"/>
  <flow id="buses_109" type="bus" begin="0" end="1200" number="10" from="541564302#2" to="541564301#1" departLane="best" departSpeed="max"/>
  <flow id="buses_110" type="bus" begin="0" end="1200" number="3" from="-541564301#1" to="547861653#3" departLane="best" departSpeed="max"/>
  <personFlow id="ped_12" begin="0" end="1200" number="379">
    <walk from=":cluster_29604657_3240419088_3240419089_393551241_#1more_c2" to=":cluster_29604657_3240419088_3240419089_393551241_#1more_w6"/>
  </personFlow>
  <personFlow id="ped_13" begin="0" end="1200" number="464">
    <walk from=":cluster_29604657_3240419088_3240419089_393551241_#1more_c0" to=":cluster_29604657_3240419088_3240419089_393551241_#1more_w2"/>
  </personFlow>
  <personFlow id="ped_14" begin="0" end="1200" number="165">
    <walk from=":cluster_29604657_3240419088_3240419089_393551241_#1more_c1" to=":cluster_29604657_3240419088_3240419089_393551241_#1more_w4"/>
  </personFlow>
  <personFlow id="ped_15" begin="0" end="1200" number="363">
    <walk from=":cluster_29604657_3240419088_3240419089_393551241_#1more_c3" to="544590056#1"/>
  </personFlow>
  <flow id="cars_111" type="car" begin="0" end="1200" number="63" from="-222151618#4" to="-222151618#1" departLane="best" departSpeed="max"/>
  <flow id="cars_112" type="car" begin="0" end="1200" number="51" from="-222151618#4" to="-4652040#1" departLane="best" departSpeed="max"/>
  <flow id="cars_113" type="car" begin="0" end="1200" number="138" from="222151618#1" to="-4652040#1" departLane="best" departSpeed="max"/>
  <flow id="cars_114" type="car" begin="0" end="1200" number="1" from="222151618#1" to="222151618#4" departLane="best" departSpeed="max"/>
  <flow id="cars_115" type="car" begin="0" end="1200" number="1238" from="5686881#0" to="-4652040#1" departLane="best" departSpeed="max"/>
  <flow id="cars_116" type="car" begin="0" end="1200" number="148" from="5686881#0" to="222151618#4" departLane="best" departSpeed="max"/>
  <flow id="cars_117" type="car" begin="0" end="1200" number="115" from="4652040#1" to="222151618#4" departLane="best" departSpeed="max"/>
  <flow id="trucks_118" type="truck" begin="0" end="1200" number="2" from="-222151618#4" to="-222151618#1" departLane="best" departSpeed="max"/>
  <flow id="trucks_119" type="truck" begin="0" end="1200" number="1" from="-222151618#4" to="-4652040#1" departLane="best" departSpeed="max"/>
  <flow id="trucks_120" type="truck" begin="0" end="1200" number="7" from="222151618#1" to="-4652040#1" departLane="best" departSpeed="max"/>
  <flow id="trucks_121" type="truck" begin="0" end="1200" number="38" from="5686881#0" to="-4652040#1" departLane="best" departSpeed="max"/>
  <flow id="trucks_122" type="truck" begin="0" end="1200" number="5" from="5686881#0" to="222151618#4" departLane="best" departSpeed="max"/>
  <flow id="trucks_123" type="truck" begin="0" end="1200" number="6" from="4652040#1" to="222151618#4" departLane="best" departSpeed="max"/>
  <flow id="buses_124" type="bus" begin="0" end="1200" number="2" from="-222151618#4" to="-4652040#1" departLane="best" departSpeed="max"/>
  <flow id="buses_125" type="bus" begin="0" end="1200" number="9" from="5686881#0" to="-4652040#1" departLane="best" departSpeed="max"/>
  <personFlow id="ped_16" begin="0" end="1200" number="1422">
    <walk from=":cluster_11149179983_29604800_393551254_393552055_#1more_c3" to="695649193#1"/>
  </personFlow>
  <personFlow id="ped_17" begin="0" end="1200" number="3863">
    <walk from=":cluster_11149179983_29604800_393551254_393552055_#1more_c1" to=":cluster_11149179983_29604800_393551254_393552055_#1more_w0"/>
  </personFlow>
  <personFlow id="ped_18" begin="0" end="1200" number="602">
    <walk from=":cluster_11149179983_29604800_393551254_393552055_#1more_c2" to="1202658352#1"/>
  </personFlow>
  <personFlow id="ped_19" begin="0" end="1200" number="757">
    <walk from=":cluster_11149179983_29604800_393551254_393552055_#1more_c0" to=":cluster_11149179983_29604800_393551254_393552055_#1more_w4"/>
  </personFlow>
  <personFlow id="ped_20" begin="0" end="1200" number="711">
    <walk from=":cluster_1369085152_1369085197_29604707_393551250_#1more_c2" to="1466927739#1"/>
  </personFlow>
  <personFlow id="ped_21" begin="0" end="1200" number="281">
    <walk from=":cluster_1369085152_1369085197_29604707_393551250_#1more_c1" to="680812201#2"/>
  </personFlow>
  <personFlow id="ped_22" begin="0" end="1200" number="354">
    <walk from=":cluster_1369085152_1369085197_29604707_393551250_#1more_c3" to=":cluster_1369085152_1369085197_29604707_393551250_#1more_w1"/>
  </personFlow>
  <flow id="cars_126" type="car" begin="0" end="1200" number="103" from="-222151619#1" to="-1263683890#1" departLane="best" departSpeed="max"/>
  <flow id="cars_127" type="car" begin="0" end="1200" number="485" from="-222151619#1" to="-285248539#6" departLane="best" departSpeed="max"/>
  <flow id="cars_128" type="car" begin="0" end="1200" number="167" from="-222151619#1" to="1263683889#1" departLane="best" departSpeed="max"/>
  <flow id="cars_129" type="car" begin="0" end="1200" number="128" from="285248539#6" to="1263683889#1" departLane="best" departSpeed="max"/>
  <flow id="cars_130" type="car" begin="0" end="1200" number="407" from="285248539#6" to="222151619#1" departLane="best" departSpeed="max"/>
  <flow id="cars_131" type="car" begin="0" end="1200" number="57" from="285248539#6" to="-1263683890#1" departLane="best" departSpeed="max"/>
  <flow id="cars_132" type="car" begin="0" end="1200" number="193" from="1263683890#1" to="-285248539#6" departLane="best" departSpeed="max"/>
  <flow id="cars_133" type="car" begin="0" end="1200" number="947" from="1263683890#1" to="1263683889#1" departLane="best" departSpeed="max"/>
  <flow id="cars_134" type="car" begin="0" end="1200" number="72" from="1263683890#1" to="222151619#1" departLane="best" departSpeed="max"/>
  <flow id="cars_135" type="car" begin="0" end="1200" number="158" from="-1263683889#1" to="222151619#1" departLane="best" departSpeed="max"/>
  <flow id="cars_136" type="car" begin="0" end="1200" number="887" from="-1263683889#1" to="-1263683890#1" departLane="best" departSpeed="max"/>
  <flow id="cars_137" type="car" begin="0" end="1200" number="131" from="-1263683889#1" to="-285248539#6" departLane="best" departSpeed="max"/>
  <flow id="trucks_138" type="truck" begin="0" end="1200" number="2" from="-222151619#1" to="-1263683890#1" departLane="best" departSpeed="max"/>
  <flow id="trucks_139" type="truck" begin="0" end="1200" number="13" from="-222151619#1" to="-285248539#6" departLane="best" departSpeed="max"/>
  <flow id="trucks_140" type="truck" begin="0" end="1200" number="8" from="-222151619#1" to="1263683889#1" departLane="best" departSpeed="max"/>
  <flow id="trucks_141" type="truck" begin="0" end="1200" number="3" from="285248539#6" to="1263683889#1" departLane="best" departSpeed="max"/>
  <flow id="trucks_142" type="truck" begin="0" end="1200" number="16" from="285248539#6" to="222151619#1" departLane="best" departSpeed="max"/>
  <flow id="trucks_143" type="truck" begin="0" end="1200" number="1" from="285248539#6" to="-1263683890#1" departLane="best" departSpeed="max"/>
  <flow id="trucks_144" type="truck" begin="0" end="1200" number="6" from="1263683890#1" to="-285248539#6" departLane="best" departSpeed="max"/>
  <flow id="trucks_145" type="truck" begin="0" end="1200" number="18" from="1263683890#1" to="1263683889#1" departLane="best" departSpeed="max"/>
  <flow id="trucks_146" type="truck" begin="0" end="1200" number="5" from="1263683890#1" to="222151619#1" departLane="best" departSpeed="max"/>
  <flow id="trucks_147" type="truck" begin="0" end="1200" number="8" from="-1263683889#1" to="222151619#1" departLane="best" departSpeed="max"/>
  <flow id="trucks_148" type="truck" begin="0" end="1200" number="29" from="-1263683889#1" to="-1263683890#1" departLane="best" departSpeed="max"/>
  <flow id="trucks_149" type="truck" begin="0" end="1200" number="2" from="-1263683889#1" to="-285248539#6" departLane="best" departSpeed="max"/>
  <flow id="buses_150" type="bus" begin="0" end="1200" number="2" from="-222151619#1" to="-285248539#6" departLane="best" departSpeed="max"/>
  <flow id="buses_151" type="bus" begin="0" end="1200" number="1" from="-222151619#1" to="1263683889#1" departLane="best" departSpeed="max"/>
  <flow id="buses_152" type="bus" begin="0" end="1200" number="1" from="285248539#6" to="1263683889#1" departLane="best" departSpeed="max"/>
  <flow id="buses_153" type="bus" begin="0" end="1200" number="1" from="285248539#6" to="222151619#1" departLane="best" departSpeed="max"/>
  <flow id="buses_154" type="bus" begin="0" end="1200" number="12" from="1263683890#1" to="1263683889#1" departLane="best" departSpeed="max"/>
  <flow id="buses_155" type="bus" begin="0" end="1200" number="1" from="-1263683889#1" to="222151619#1" departLane="best" departSpeed="max"/>
  <flow id="buses_156" type="bus" begin="0" end="1200" number="10" from="-1263683889#1" to="-1263683890#1" departLane="best" departSpeed="max"/>
  <flow id="buses_157" type="bus" begin="0" end="1200" number="3" from="-1263683889#1" to="-285248539#6" departLane="best" departSpeed="max"/>
  <personFlow id="ped_23" begin="0" end="1200" number="1090">
    <walk from=":cluster_29604747_393551251_393552061_394502530_#1more_c2" to=":cluster_29604747_393551251_393552061_394502530_#1more_w6"/>
  </personFlow>
  <personFlow id="ped_24" begin="0" end="1200" number="1594">
    <walk from=":cluster_29604747_393551251_393552061_394502530_#1more_c0" to="1466927749#1"/>
  </personFlow>
  <personFlow id="ped_25" begin="0" end="1200" number="663">
    <walk from=":cluster_29604747_393551251_393552061_394502530_#1more_c1" to="680812207#1"/>
  </personFlow>
  <personFlow id="ped_26" begin="0" end="1200" number="558">
    <walk from=":cluster_29604747_393551251_393552061_394502530_#1more_c3" to=":cluster_29604747_393551251_393552061_394502530_#1more_w1"/>
  </personFlow>
  <flow id="cars_158" type="car" begin="0" end="1200" number="7" from="-5686883#2" to="5686885#1" departLane="best" departSpeed="max"/>
  <flow id="cars_159" type="car" begin="0" end="1200" number="39" from="-5686883#2" to="-222151618#5" departLane="best" departSpeed="max"/>
  <flow id="cars_160" type="car" begin="0" end="1200" number="429" from="222151618#5" to="5080129#1" departLane="best" departSpeed="max"/>
  <flow id="cars_161" type="car" begin="0" end="1200" number="126" from="222151618#5" to="5686883#1" departLane="best" departSpeed="max"/>
  <flow id="cars_162" type="car" begin="0" end="1200" number="1" from="61760482#0" to="-222151618#5" departLane="best" departSpeed="max"/>
  <flow id="cars_163" type="car" begin="0" end="1200" number="841" from="61760482#0" to="5080129#1" departLane="best" departSpeed="max"/>
  <flow id="cars_164" type="car" begin="0" end="1200" number="4" from="61760482#0" to="5686883#1" departLane="best" departSpeed="max"/>
  <flow id="cars_165" type="car" begin="0" end="1200" number="300" from="223420013#1" to="5686883#1" departLane="best" departSpeed="max"/>
  <flow id="cars_166" type="car" begin="0" end="1200" number="557" from="223420013#1" to="5686885#1" departLane="best" departSpeed="max"/>
  <flow id="cars_167" type="car" begin="0" end="1200" number="7" from="223420013#1" to="-222151618#5" departLane="best" departSpeed="max"/>
  <flow id="trucks_168" type="truck" begin="0" end="1200" number="1" from="-5686883#2" to="5686885#1" departLane="best" departSpeed="max"/>
  <flow id="trucks_169" type="truck" begin="0" end="1200" number="2" from="-5686883#2" to="-222151618#5" departLane="best" departSpeed="max"/>
  <flow id="trucks_170" type="truck" begin="0" end="1200" number="2" from="222151618#5" to="5080129#1" departLane="best" departSpeed="max"/>
  <flow id="trucks_171" type="truck" begin="0" end="1200" number="3" from="222151618#5" to="5686883#1" departLane="best" departSpeed="max"/>
  <flow id="trucks_172" type="truck" begin="0" end="1200" number="8" from="61760482#0" to="5080129#1" departLane="best" departSpeed="max"/>