<?xml version='1.0' encoding='UTF-8'?>
<routes>
  <vType id="car" accel="2.6" decel="4.5" sigma="0.5" length="5" maxSpeed="13.89" vClass="passenger"/>
  <vType id="truck" accel="1.2" decel="3.5" sigma="0.5" length="10.5" maxSpeed="12.5" vClass="truck"/>
  <vType id="bus" accel="1.3" decel="4" sigma="0.5" length="12" maxSpeed="12.5" vClass="bus"/>
  <flow id="cars_0" type="car" begin="0" end="3600" number="46" from="-222151618#1" to="-1176470383#0" departLane="best" departSpeed="max"/>
  <flow id="cars_1" type="car" begin="0" end="3600" number="61" from="-222151618#1" to="-222151619#1" departLane="best" departSpeed="max"/>
  <flow id="cars_2" type="car" begin="0" end="3600" number="21" from="-222151618#1" to="222151622#1" departLane="best" departSpeed="max"/>
  <flow id="cars_3" type="car" begin="0" end="3600" number="22" from="222151619#1" to="222151622#1" departLane="best" departSpeed="max"/>
  <flow id="cars_4" type="car" begin="0" end="3600" number="196" from="222151619#1" to="222151618#1" departLane="best" departSpeed="max"/>
  <flow id="cars_5" type="car" begin="0" end="3600" number="14" from="222151619#1" to="-1176470383#0" departLane="best" departSpeed="max"/>
  <flow id="cars_6" type="car" begin="0" end="3600" number="60" from="222151621" to="-222151619#1" departLane="best" departSpeed="max"/>
  <flow id="cars_7" type="car" begin="0" end="3600" number="265" from="222151621" to="222151622#1" departLane="best" departSpeed="max"/>
  <flow id="cars_8" type="car" begin="0" end="3600" number="29" from="222151621" to="222151618#1" departLane="best" departSpeed="max"/>
  <flow id="cars_9" type="car" begin="0" end="3600" number="26" from="-222151622#1" to="222151618#1" departLane="best" departSpeed="max"/>
  <flow id="cars_10" type="car" begin="0" end="3600" number="591" from="-222151622#1" to="-1176470383#0" departLane="best" departSpeed="max"/>
  <flow id="cars_11" type="car" begin="0" end="3600" number="1" from="-222151622#1" to="-222151619#1" departLane="best" departSpeed="max"/>
  <flow id="trucks_12" type="truck" begin="0" end="3600" number="2" from="-222151618#1" to="-1176470383#0" departLane="best" departSpeed="max"/>
  <flow id="trucks_13" type="truck" begin="0" end="3600" number="6" from="-222151618#1" to="-222151619#1" departLane="best" departSpeed="max"/>
  <flow id="trucks_14" type="truck" begin="0" end="3600" number="1" from="-222151618#1" to="222151622#1" departLane="best" departSpeed="max"/>
  <flow id="trucks_15" type="truck" begin="0" end="3600" number="1" from="222151619#1" to="222151622#1" departLane="best" departSpeed="max"/>
  <flow id="trucks_16" type="truck" begin="0" end="3600" number="2" from="222151619#1" to="222151618#1" departLane="best" departSpeed="max"/>
  <flow id="trucks_17" type="truck" begin="0" end="3600" number="1" from="222151619#1" to="-1176470383#0" departLane="best" departSpeed="max"/>
  <flow id="trucks_18" type="truck" begin="0" end="3600" number="4" from="222151621" to="-222151619#1" departLane="best" departSpeed="max"/>
  <flow id="trucks_19" type="truck" begin="0" end="3600" number="8" from="222151621" to="222151622#1" departLane="best" departSpeed="max"/>
  <flow id="trucks_20" type="truck" begin="0" end="3600" number="1" from="222151621" to="222151618#1" departLane="best" departSpeed="max"/>
  <flow id="trucks_21" type="truck" begin="0" end="3600" number="1" from="-222151622#1" to="222151618#1" departLane="best" departSpeed="max"/>
  <flow id="trucks_22" type="truck" begin="0" end="3600" number="10" from="-222151622#1" to="-1176470383#0" departLane="best" departSpeed="max"/>
  <flow id="buses_23" type="bus" begin="0" end="3600" number="1" from="-222151618#1" to="-1176470383#0" departLane="best" departSpeed="max"/>
  <flow id="buses_24" type="bus" begin="0" end="3600" number="1" from="-222151618#1" to="-222151619#1" departLane="best" departSpeed="max"/>
  <flow id="buses_25" type="bus" begin="0" end="3600" number="2" from="222151619#1" to="222151618#1" departLane="best" departSpeed="max"/>
  <flow id="buses_26" type="bus" begin="0" end="3600" number="2" from="222151621" to="-222151619#1" departLane="best" departSpeed="max"/>
  <flow id="buses_27" type="bus" begin="0" end="3600" number="8" from="222151621" to="222151622#1" departLane="best" departSpeed="max"/>
  <flow id="buses_28" type="bus" begin="0" end="3600" number="5" from="-222151622#1" to="-1176470383#0" departLane="best" departSpeed="max"/>
  <flow id="cars_29" type="car" begin="0" end="3600" number="60" from="-445865882#0" to="-493830471#6" departLane="best" departSpeed="max"/>
  <flow id="cars_30" type="car" begin="0" end="3600" number="299" from="-445865882#0" to="-1096900277#2" departLane="best" departSpeed="max"/>
  <flow id="cars_31" type="car" begin="0" end="3600" number="11" from="-445865882#0" to="493830469#1" departLane="best" departSpeed="max"/>
  <flow id="cars_32" type="car" begin="0" end="3600" number="66" from="1096900277#0" to="493830469#1" departLane="best" departSpeed="max"/>
  <flow id="cars_33" type="car" begin="0" end="3600" number="26" from="1096900277#0" to="-493830471#6" departLane="best" departSpeed="max"/>
  <flow id="cars_34" type="car" begin="0" end="3600" number="84" from="493830471#5" to="-1096900277#2" departLane="best" departSpeed="max"/>
  <flow id="cars_35" type="car" begin="0" end="3600" number="193" from="493830471#5" to="493830469#1" departLane="best" departSpeed="max"/>
  <flow id="cars_36" type="car" begin="0" end="3600" number="22" from="493830471#5" to="851809955#1" departLane="best" departSpeed="max"/>
  <flow id="cars_37" type="car" begin="0" end="3600" number="50" from="-493830469#2" to="851809955#1" departLane="best" departSpeed="max"/>
  <flow id="cars_38" type="car" begin="0" end="3600" number="371" from="-493830469#2" to="-493830471#6" departLane="best" departSpeed="max"/>
  <flow id="cars_39" type="car" begin="0" end="3600" number="58" from="-493830469#2" to="-1096900277#2" departLane="best" departSpeed="max"/>
  <flow id="trucks_40" type="truck" begin="0" end="3600" number="7" from="-445865882#0" to="-1096900277#2" departLane="best" departSpeed="max"/>
  <flow id="trucks_41" type="truck" begin="0" end="3600" number="3" from="-445865882#0" to="493830469#1" departLane="best" departSpeed="max"/>
  <flow id="trucks_42" type="truck" begin="0" end="3600" number="3" from="1096900277#0" to="493830469#1" departLane="best" departSpeed="max"/>
  <flow id="trucks_43" type="truck" begin="0" end="3600" number="4" from="493830471#5" to="-1096900277#2" departLane="best" departSpeed="max"/>
  <flow id="trucks_44" type="truck" begin="0" end="3600" number="1" from="493830471#5" to="493830469#1" departLane="best" departSpeed="max"/>
  <flow id="trucks_45" type="truck" begin="0" end="3600" number="3" from="493830471#5" to="851809955#1" departLane="best" departSpeed="max"/>
  <flow id="trucks_46" type="truck" begin="0" end="3600" number="2" from="-493830469#2" to="851809955#1" departLane="best" departSpeed="max"/>
  <flow id="trucks_47" type="truck" begin="0" end="3600" number="3" from="-493830469#2" to="-493830471#6" departLane="best" departSpeed="max"/>
  <flow id="trucks_48" type="truck" begin="0" end="3600" number="2" from="-493830469#2" to="-1096900277#2" departLane="best" departSpeed="max"/>
  <flow id="buses_49" type="bus" begin="0" end="3600" number="1" from="-445865882#0" to="-1096900277#2" departLane="best" departSpeed="max"/>
  <flow id="buses_50" type="bus" begin="0" end="3600" number="2" from="1096900277#0" to="493830469#1" departLane="best" departSpeed="max"/>
  <flow id="buses_51" type="bus" begin="0" end="3600" number="1" from="1096900277#0" to="-493830471#6" departLane="best" departSpeed="max"/>
  <flow id="buses_52" type="bus" begin="0" end="3600" number="4" from="493830471#5" to="493830469#1" departLane="best" departSpeed="max"/>
  <flow id="buses_53" type="bus" begin="0" end="3600" number="1" from="493830471#5" to="851809955#1" departLane="best" departSpeed="max"/>
  <flow id="buses_54" type="bus" begin="0" end="3600" number="2" from="-493830469#2" to="-493830471#6" departLane="best" departSpeed="max"/>
  <flow id="buses_55" type="bus" begin="0" end="3600" number="1" from="-493830469#2" to="-1096900277#2" departLane="best" departSpeed="max"/>
  <flow id="cars_56" type="car" begin="0" end="3600" number="456" from="1160603349#1" to="4651982#1" departLane="best" departSpeed="max"/>
  <flow id="cars_57" type="car" begin="0" end="3600" number="33" from="1160603349#1" to="-547861653#4" departLane="best" departSpeed="max"/>
  <flow id="trucks_58" type="truck" begin="0" end="3600" number="13" from="1160603349#1" to="4651982#1" departLane="best" departSpeed="max"/>
  <flow id="trucks_59" type="truck" begin="0" end="3600" number="2" from="1160603349#1" to="-547861653#4" departLane="best" departSpeed="max"/>
  <flow id="buses_60" type="bus" begin="0" end="3600" number="2" from="1160603349#1" to="4651982#1" departLane="best" departSpeed="max"/>
  <flow id="buses_61" type="bus" begin="0" end="3600" number="1" from="1160603349#1" to="-547861653#4" departLane="best" departSpeed="max"/>
  <flow id="cars_62" type="car" begin="0" end="3600" number="24" from="-4651746#1" to="28823583#1" departLane="best" departSpeed="max"/>
  <flow id="cars_63" type="car" begin="0" end="3600" number="378" from="-4651746#1" to="-5686834#2" departLane="best" departSpeed="max"/>
  <flow id="cars_64" type="car" begin="0" end="3600" number="41" from="-4651746#1" to="28823582#1" departLane="best" departSpeed="max"/>
  <flow id="cars_65" type="car" begin="0" end="3600" number="31" from="5686834#2" to="28823582#1" departLane="best" departSpeed="max"/>
  <flow id="cars_66" type="car" begin="0" end="3600" number="346" from="5686834#2" to="4651746#1" departLane="best" departSpeed="max"/>
  <flow id="cars_67" type="car" begin="0" end="3600" number="108" from="5686834#2" to="28823583#1" departLane="best" departSpeed="max"/>
  <flow id="cars_68" type="car" begin="0" end="3600" number="22" from="445862068#4" to="-5686834#2" departLane="best" departSpeed="max"/>
  <flow id="cars_69" type="car" begin="0" end="3600" number="310" from="445862068#4" to="28823582#1" departLane="best" departSpeed="max"/>
  <flow id="cars_70" type="car" begin="0" end="3600" number="2" from="445862068#4" to="4651746#1" departLane="best" departSpeed="max"/>
  <flow id="cars_71" type="car" begin="0" end="3600" number="54" from="30759232#0" to="4651746#1" departLane="best" departSpeed="max"/>
  <flow id="cars_72" type="car" begin="0" end="3600" number="503" from="30759232#0" to="28823583#1" departLane="best" departSpeed="max"/>
  <flow id="cars_73" type="car" begin="0" end="3600" number="1" from="30759232#0" to="-5686834#2" departLane="best" departSpeed="max"/>
  <flow id="trucks_74" type="truck" begin="0" end="3600" number="2" from="-4651746#1" to="28823583#1" departLane="best" departSpeed="max"/>
  <flow id="trucks_75" type="truck" begin="0" end="3600" number="10" from="-4651746#1" to="-5686834#2" departLane="best" departSpeed="max"/>
  <flow id="trucks_76" type="truck" begin="0" end="3600" number="3" from="-4651746#1" to="28823582#1" departLane="best" departSpeed="max"/>
  <flow id="trucks_77" type="truck" begin="0" end="3600" number="4" from="5686834#2" to="28823582#1" departLane="best" departSpeed="max"/>
  <flow id="trucks_78" type="truck" begin="0" end="3600" number="16" from="5686834#2" to="4651746#1" departLane="best" departSpeed="max"/>
  <flow id="trucks_79" type="truck" begin="0" end="3600" number="7" from="5686834#2" to="28823583#1" departLane="best" departSpeed="max"/>
  <flow id="trucks_80" type="truck" begin="0" end="3600" number="1" from="445862068#4" to="-5686834#2" departLane="best" departSpeed="max"/>
  <flow id="trucks_81" type="truck" begin="0" end="3600" number="11" from="445862068#4" to="28823582#1" departLane="best" departSpeed="max"/>
  <flow id="trucks_82" type="truck" begin="0" end="3600" number="2" from="445862068#4" to="4651746#1" departLane="best" departSpeed="max"/>
  <flow id="trucks_83" type="truck" begin="0" end="3600" number="4" from="30759232#0" to="4651746#1" departLane="best" departSpeed="max"/>
  <flow id="trucks_84" type="truck" begin="0" end="3600" number="10" from="30759232#0" to="28823583#1" departLane="best" departSpeed="max"/>
  <flow id="trucks_85" type="truck" begin="0" end="3600" number="1" from="30759232#0" to="-5686834#2" departLane="best" departSpeed="max"/>
  <flow id="buses_86" type="bus" begin="0" end="3600" number="1" from="-4651746#1" to="28823583#1" departLane="best" departSpeed="max"/>
  <flow id="buses_87" type="bus" begin="0" end="3600" number="5" from="-4651746#1" to="-5686834#2" departLane="best" departSpeed="max"/>
  <flow id="buses_88" type="bus" begin="0" end="3600" number="1" from="-4651746#1" to="28823582#1" departLane="best" departSpeed="max"/>
  <flow id="buses_89" type="bus" begin="0" end="3600" number="3" from="5686834#2" to="4651746#1" departLane="best" departSpeed="max"/>
  <flow id="buses_90" type="bus" begin="0" end="3600" number="2" from="5686834#2" to="28823583#1" departLane="best" departSpeed="max"/>
  <flow id="buses_91" type="bus" begin="0" end="3600" number="2" from="445862068#4" to="28823582#1" departLane="best" departSpeed="max"/>
  <flow id="buses_92" type="bus" begin="0" end="3600" number="1" from="30759232#0" to="28823583#1" departLane="best" departSpeed="max"/>
  <flow id="cars_93" type="car" begin="0" end="3600" number="15" from="-547861653#3" to="-547861653#0" departLane="best" departSpeed="max"/>
  <flow id="cars_94" type="car" begin="0" end="3600" number="21" from="-547861653#3" to="541564301#1" departLane="best" departSpeed="max"/>
  <flow id="cars_95" type="car" begin="0" end="3600" number="56" from="547861653#0" to="541564301#1" departLane="best" departSpeed="max"/>
  <flow id="cars_96" type="car" begin="0" end="3600" number="2" from="547861653#0" to="547861653#3" departLane="best" departSpeed="max"/>
  <flow id="cars_97" type="car" begin="0" end="3600" number="1" from="541564302#2" to="-547861653#0" departLane="best" departSpeed="max"/>
  <flow id="cars_98" type="car" begin="0" end="3600" number="337" from="541564302#2" to="541564301#1" departLane="best" departSpeed="max"/>
  <flow id="cars_99" type="car" begin="0" end="3600" number="40" from="541564302#2" to="547861653#3" departLane="best" departSpeed="max"/>
  <flow id="cars_100" type="car" begin="0" end="3600" number="32" from="-541564301#1" to="547861653#3" departLane="best" departSpeed="max"/>
  <flow id="trucks_101" type="truck" begin="0" end="3600" number="2" from="-547861653#3" to="541564301#1" departLane="best" departSpeed="max"/>
  <flow id="trucks_102" type="truck" begin="0" end="3600" number="1" from="547861653#0" to="541564301#1" departLane="best" departSpeed="max"/>
  <flow id="trucks_103" type="truck" begin="0" end="3600" number="10" from="541564302#2" to="541564301#1" departLane="best" departSpeed="max"/>
  <flow id="buses_104" type="bus" begin="0" end="3600" number="1" from="-547861653#3" to="-547861653#0" departLane="best" departSpeed="max"/>
  <flow id="buses_105" type="bus" begin="0" end="3600" number="12" from="541564302#2" to="541564301#1" departLane="best" departSpeed="max"/>
  <flow id="buses_106" type="bus" begin="0" end="3600" number="2" from="541564302#2" to="547861653#3" departLane="best" departSpeed="max"/>
  <flow id="buses_107" type="bus" begin="0" end="3600" number="4" from="-541564301#1" to="547861653#3" departLane="best" departSpeed="max"/>
  <flow id="cars_108" type="car" begin="0" end="3600" number="9" from="-222151618#4" to="-222151618#1" departLane="best" departSpeed="max"/>
  <flow id="cars_109" type="car" begin="0" end="3600" number="12" from="-222151618#4" to="-4652040#1" departLane="best" departSpeed="max"/>
  <flow id="cars_110" type="car" begin="0" end="3600" number="46" from="222151618#1" to="-4652040#1" departLane="best" departSpeed="max"/>
  <flow id="cars_111" type="car" begin="0" end="3600" number="328" from="5686881#0" to="-4652040#1" departLane="best" departSpeed="max"/>
  <flow id="cars_112" type="car" begin="0" end="3600" number="66" from="5686881#0" to="222151618#4" departLane="best" departSpeed="max"/>
  <flow id="cars_113" type="car" begin="0" end="3600" number="49" from="4652040#1" to="222151618#4" departLane="best" departSpeed="max"/>
  <flow id="trucks_114" type="truck" begin="0" end="3600" number="1" from="-222151618#4" to="-4652040#1" departLane="best" departSpeed="max"/>
  <flow id="trucks_115" type="truck" begin="0" end="3600" number="3" from="222151618#1" to="-4652040#1" departLane="best" departSpeed="max"/>
  <flow id="trucks_116" type="truck" begin="0" end="3600" number="12" from="5686881#0" to="-4652040#1" departLane="best" departSpeed="max"/>
  <flow id="trucks_117" type="truck" begin="0" end="3600" number="1" from="5686881#0" to="222151618#4" departLane="best" departSpeed="max"/>
  <flow id="trucks_118" type="truck" begin="0" end="3600" number="1" from="4652040#1" to="222151618#4" departLane="best" departSpeed="max"/>
  <flow id="buses_119" type="bus" begin="0" end="3600" number="9" from="5686881#0" to="-4652040#1" departLane="best" departSpeed="max"/>
  <flow id="buses_120" type="bus" begin="0" end="3600" number="2" from="5686881#0" to="222151618#4" departLane="best" departSpeed="max"/>
  <flow id="cars_121" type="car" begin="0" end="3600" number="6" from="222151618#4" to="222151618#5" departLane="best" departSpeed="max"/>
  <flow id="cars_122" type="car" begin="0" end="3600" number="27" from="222151618#4" to="5686879#1" departLane="best" departSpeed="max"/>
  <flow id="cars_123" type="car" begin="0" end="3600" number="669" from="5686882#1" to="5686879#1" departLane="best" departSpeed="max"/>
  <flow id="cars_124" type="car" begin="0" end="3600" number="68" from="5686882#1" to="-222151618#4" departLane="best" departSpeed="max"/>
  <flow id="trucks_125" type="truck" begin="0" end="3600" number="26" from="5686882#1" to="5686879#1" departLane="best" departSpeed="max"/>
  <flow id="buses_126" type="bus" begin="0" end="3600" number="14" from="5686882#1" to="5686879#1" departLane="best" departSpeed="max"/>
  <flow id="cars_127" type="car" begin="0" end="3600" number="21" from="-222151619#1" to="-1263683890#1" departLane="best" departSpeed="max"/>
  <flow id="cars_128" type="car" begin="0" end="3600" number="134" from="-222151619#1" to="-285248539#6" departLane="best" departSpeed="max"/>
  <flow id="cars_129" type="car" begin="0" end="3600" number="45" from="-222151619#1" to="1263683889#1" departLane="best" departSpeed="max"/>
  <flow id="cars_130" type="car" begin="0" end="3600" number="17" from="285248539#6" to="1263683889#1" departLane="best" departSpeed="max"/>
  <flow id="cars_131" type="car" begin="0" end="3600" number="146" from="285248539#6" to="222151619#1" departLane="best" departSpeed="max"/>
  <flow id="cars_132" type="car" begin="0" end="3600" number="13" from="285248539#6" to="-1263683890#1" departLane="best" departSpeed="max"/>
  <flow id="cars_133" type="car" begin="0" end="3600" number="44" from="1263683890#1" to="-285248539#6" departLane="best" departSpeed="max"/>
  <flow id="cars_134" type="car" begin="0" end="3600" number="244" from="1263683890#1" to="1263683889#1" departLane="best" departSpeed="max"/>
  <flow id="cars_135" type="car" begin="0" end="3600" number="30" from="1263683890#1" to="222151619#1" departLane="best" departSpeed="max"/>
  <flow id="cars_136" type="car" begin="0" end="3600" number="80" from="-1263683889#1" to="222151619#1" departLane="best" departSpeed="max"/>
  <flow id="cars_137" type="car" begin="0" end="3600" number="568" from="-1263683889#1" to="-1263683890#1" departLane="best" departSpeed="max"/>
  <flow id="cars_138" type="car" begin="0" end="3600" number="9" from="-1263683889#1" to="-285248539#6" departLane="best" departSpeed="max"/>
  <flow id="trucks_139" type="truck" begin="0" end="3600" number="3" from="-222151619#1" to="-285248539#6" departLane="best" departSpeed="max"/>
  <flow id="trucks_140" type="truck" begin="0" end="3600" number="2" from="-222151619#1" to="1263683889#1" departLane="best" departSpeed="max"/>
  <flow id="trucks_141" type="truck" begin="0" end="3600" number="1" from="285248539#6" to="1263683889#1" departLane="best" departSpeed="max"/>
  <flow id="trucks_142" type="truck" begin="0" end="3600" number="2" from="1263683890#1" to="-285248539#6" departLane="best" departSpeed="max"/>
  <flow id="trucks_143" type="truck" begin="0" end="3600" number="9" from="1263683890#1" to="1263683889#1" departLane="best" departSpeed="max"/>
  <flow id="trucks_144" type="truck" begin="0" end="3600" number="2" from="-1263683889#1" to="222151619#1" departLane="best" departSpeed="max"/>
  <flow id="trucks_145" type="truck" begin="0" end="3600" number="5" from="-1263683889#1" to="-1263683890#1" departLane="best" departSpeed="max"/>
  <flow id="buses_146" type="bus" begin="0" end="3600" number="1" from="-222151619#1" to="-1263683890#1" departLane="best" departSpeed="max"/>
  <flow id="buses_147" type="bus" begin="0" end="3600" number="3" from="-222151619#1" to="-285248539#6" departLane="best" departSpeed="max"/>
  <flow id="buses_148" type="bus" begin="0" end="3600" number="2" from="-222151619#1" to="1263683889#1" departLane="best" departSpeed="max"/>
  <flow id="buses_149" type="bus" begin="0" end="3600" number="4" from="285248539#6" to="222151619#1" departLane="best" departSpeed="max"/>
  <flow id="buses_150" type="bus" begin="0" end="3600" number="3" from="1263683890#1" to="-285248539#6" departLane="best" departSpeed="max"/>
  <flow id="buses_151" type="bus" begin="0" end="3600" number="5" from="1263683890#1" to="1263683889#1" departLane="best" departSpeed="max"/>
  <flow id="buses_152" type="bus" begin="0" end="3600" number="1" from="1263683890#1" to="222151619#1" departLane="best" departSpeed="max"/>
  <flow id="buses_153" type="bus" begin="0" end="3600" number="3" from="-1263683889#1" to="-1263683890#1" departLane="best" departSpeed="max"/>
</routes>
