<?xml version='1.0' encoding='UTF-8'?>
<routes>
  <vType id="car" accel="2.6" decel="4.5" sigma="0.5" length="5.0" maxSpeed="13.89"/>
  <flow id="flow_0" type="car" begin="0" end="3600" vehsPerHour="16" from="-10070564#6" to="-10070562#0" departLane="best" departSpeed="max"/>
  <flow id="flow_1" type="car" begin="0" end="3600" vehsPerHour="16" from="-10070564#6" to="-1096900277#2" departLane="best" departSpeed="max"/>
  <flow id="flow_2" type="car" begin="0" end="3600" vehsPerHour="16" from="-10070564#6" to="-133596276#0" departLane="best" departSpeed="max"/>
  <flow id="flow_3" type="car" begin="0" end="3600" vehsPerHour="16" from="-222151622#6" to="-10070562#0" departLane="best" departSpeed="max"/>
  <flow id="flow_4" type="car" begin="0" end="3600" vehsPerHour="16" from="-222151622#6" to="-1096900277#2" departLane="best" departSpeed="max"/>
  <flow id="flow_5" type="car" begin="0" end="3600" vehsPerHour="16" from="-222151622#6" to="-133596276#0" departLane="best" departSpeed="max"/>
  <flow id="flow_6" type="car" begin="0" end="3600" vehsPerHour="100" from="-296783426#5" to="-10070562#0" departLane="best" departSpeed="max"/>
  <flow id="flow_7" type="car" begin="0" end="3600" vehsPerHour="100" from="-296783426#5" to="-1096900277#2" departLane="best" departSpeed="max"/>
  <flow id="flow_8" type="car" begin="0" end="3600" vehsPerHour="100" from="-296783426#5" to="-133596276#0" departLane="best" departSpeed="max"/>
  <flow id="flow_9" type="car" begin="0" end="3600" vehsPerHour="16" from="-5090416#2" to="-10070562#0" departLane="best" departSpeed="max"/>
  <flow id="flow_10" type="car" begin="0" end="3600" vehsPerHour="16" from="-5090416#2" to="-1096900277#2" departLane="best" departSpeed="max"/>
  <flow id="flow_11" type="car" begin="0" end="3600" vehsPerHour="16" from="-5090416#2" to="-133596276#0" departLane="best" departSpeed="max"/>
  <flow id="flow_12" type="car" begin="0" end="3600" vehsPerHour="100" from="-5686883#2" to="-10070562#0" departLane="best" departSpeed="max"/>
  <flow id="flow_13" type="car" begin="0" end="3600" vehsPerHour="100" from="-5686883#2" to="-1096900277#2" departLane="best" departSpeed="max"/>
  <flow id="flow_14" type="car" begin="0" end="3600" vehsPerHour="100" from="-5686883#2" to="-133596276#0" departLane="best" departSpeed="max"/>
  <flow id="flow_15" type="car" begin="0" end="3600" vehsPerHour="16" from="-6694649#2" to="-10070562#0" departLane="best" departSpeed="max"/>
  <flow id="flow_16" type="car" begin="0" end="3600" vehsPerHour="16" from="-6694649#2" to="-1096900277#2" departLane="best" departSpeed="max"/>
  <flow id="flow_17" type="car" begin="0" end="3600" vehsPerHour="16" from="-6694649#2" to="-133596276#0" departLane="best" departSpeed="max"/>
  <flow id="flow_18" type="car" begin="0" end="3600" vehsPerHour="16" from="10070562#0" to="-10070562#0" departLane="best" departSpeed="max"/>
  <flow id="flow_19" type="car" begin="0" end="3600" vehsPerHour="16" from="10070562#0" to="-1096900277#2" departLane="best" departSpeed="max"/>
  <flow id="flow_20" type="car" begin="0" end="3600" vehsPerHour="16" from="10070562#0" to="-133596276#0" departLane="best" departSpeed="max"/>
  <flow id="flow_21" type="car" begin="0" end="3600" vehsPerHour="100" from="1096900277#0" to="-10070562#0" departLane="best" departSpeed="max"/>
  <flow id="flow_22" type="car" begin="0" end="3600" vehsPerHour="100" from="1096900277#0" to="-1096900277#2" departLane="best" departSpeed="max"/>
  <flow id="flow_23" type="car" begin="0" end="3600" vehsPerHour="100" from="1096900277#0" to="-133596276#0" departLane="best" departSpeed="max"/>
  <flow id="flow_24" type="car" begin="0" end="3600" vehsPerHour="100" from="1292415000" to="-10070562#0" departLane="best" departSpeed="max"/>
  <flow id="flow_25" type="car" begin="0" end="3600" vehsPerHour="100" from="1292415000" to="-1096900277#2" departLane="best" departSpeed="max"/>
  <flow id="flow_26" type="car" begin="0" end="3600" vehsPerHour="100" from="1292415000" to="-133596276#0" departLane="best" departSpeed="max"/>
  <flow id="flow_27" type="car" begin="0" end="3600" vehsPerHour="100" from="1292415001#0" to="-10070562#0" departLane="best" departSpeed="max"/>
  <flow id="flow_28" type="car" begin="0" end="3600" vehsPerHour="100" from="1292415001#0" to="-1096900277#2" departLane="best" departSpeed="max"/>
  <flow id="flow_29" type="car" begin="0" end="3600" vehsPerHour="100" from="1292415001#0" to="-133596276#0" departLane="best" departSpeed="max"/>
  <flow id="flow_30" type="car" begin="0" end="3600" vehsPerHour="16" from="133596276#0" to="-10070562#0" departLane="best" departSpeed="max"/>
  <flow id="flow_31" type="car" begin="0" end="3600" vehsPerHour="16" from="133596276#0" to="-1096900277#2" departLane="best" departSpeed="max"/>
  <flow id="flow_32" type="car" begin="0" end="3600" vehsPerHour="16" from="133596276#0" to="-133596276#0" departLane="best" departSpeed="max"/>
  <flow id="flow_33" type="car" begin="0" end="3600" vehsPerHour="16" from="24263685#0" to="-10070562#0" departLane="best" departSpeed="max"/>
  <flow id="flow_34" type="car" begin="0" end="3600" vehsPerHour="16" from="24263685#0" to="-1096900277#2" departLane="best" departSpeed="max"/>
  <flow id="flow_35" type="car" begin="0" end="3600" vehsPerHour="16" from="24263685#0" to="-133596276#0" departLane="best" departSpeed="max"/>
  <flow id="flow_36" type="car" begin="0" end="3600" vehsPerHour="16" from="249842974#0" to="-10070562#0" departLane="best" departSpeed="max"/>
  <flow id="flow_37" type="car" begin="0" end="3600" vehsPerHour="16" from="249842974#0" to="-1096900277#2" departLane="best" departSpeed="max"/>
  <flow id="flow_38" type="car" begin="0" end="3600" vehsPerHour="16" from="249842974#0" to="-133596276#0" departLane="best" departSpeed="max"/>
  <flow id="flow_39" type="car" begin="0" end="3600" vehsPerHour="100" from="28823581#0" to="-10070562#0" departLane="best" departSpeed="max"/>
  <flow id="flow_40" type="car" begin="0" end="3600" vehsPerHour="100" from="28823581#0" to="-1096900277#2" departLane="best" departSpeed="max"/>
  <flow id="flow_41" type="car" begin="0" end="3600" vehsPerHour="100" from="28823581#0" to="-133596276#0" departLane="best" departSpeed="max"/>
  <flow id="flow_42" type="car" begin="0" end="3600" vehsPerHour="100" from="30759232#0" to="-10070562#0" departLane="best" departSpeed="max"/>
  <flow id="flow_43" type="car" begin="0" end="3600" vehsPerHour="100" from="30759232#0" to="-1096900277#2" departLane="best" departSpeed="max"/>
  <flow id="flow_44" type="car" begin="0" end="3600" vehsPerHour="100" from="30759232#0" to="-133596276#0" departLane="best" departSpeed="max"/>
  <flow id="flow_45" type="car" begin="0" end="3600" vehsPerHour="100" from="5090592#0" to="-10070562#0" departLane="best" departSpeed="max"/>
  <flow id="flow_46" type="car" begin="0" end="3600" vehsPerHour="100" from="5090592#0" to="-1096900277#2" departLane="best" departSpeed="max"/>
  <flow id="flow_47" type="car" begin="0" end="3600" vehsPerHour="100" from="5090592#0" to="-133596276#0" departLane="best" departSpeed="max"/>
  <flow id="flow_48" type="car" begin="0" end="3600" vehsPerHour="16" from="5686814#0" to="-10070562#0" departLane="best" departSpeed="max"/>
  <flow id="flow_49" type="car" begin="0" end="3600" vehsPerHour="16" from="5686814#0" to="-1096900277#2" departLane="best" departSpeed="max"/>
  <flow id="flow_50" type="car" begin="0" end="3600" vehsPerHour="16" from="5686814#0" to="-133596276#0" departLane="best" departSpeed="max"/>
  <flow id="flow_51" type="car" begin="0" end="3600" vehsPerHour="16" from="5686878#0" to="-10070562#0" departLane="best" departSpeed="max"/>
  <flow id="flow_52" type="car" begin="0" end="3600" vehsPerHour="16" from="5686878#0" to="-1096900277#2" departLane="best" departSpeed="max"/>
  <flow id="flow_53" type="car" begin="0" end="3600" vehsPerHour="16" from="5686878#0" to="-133596276#0" departLane="best" departSpeed="max"/>
  <flow id="flow_54" type="car" begin="0" end="3600" vehsPerHour="100" from="61760482#0" to="-10070562#0" departLane="best" departSpeed="max"/>
  <flow id="flow_55" type="car" begin="0" end="3600" vehsPerHour="100" from="61760482#0" to="-1096900277#2" departLane="best" departSpeed="max"/>
  <flow id="flow_56" type="car" begin="0" end="3600" vehsPerHour="100" from="61760482#0" to="-133596276#0" departLane="best" departSpeed="max"/>
</routes>
