<?xml version='1.0' encoding='UTF-8'?>
<routes>
  <vType id="car" accel="2.6" decel="4.5" sigma="0.5" length="5.0" maxSpeed="13.89"/>
  <flow id="flow_0" type="car" begin="0" end="3600" vehsPerHour="33" from="-5686883#2" to="5686885#1" departLane="best" departSpeed="max"/>
  <flow id="flow_1" type="car" begin="0" end="3600" vehsPerHour="224" from="-5686883#2" to="-222151618#5" departLane="best" departSpeed="max"/>
  <flow id="flow_2" type="car" begin="0" end="3600" vehsPerHour="23" from="222151618#5" to="5080129#1" departLane="best" departSpeed="max"/>
  <flow id="flow_3" type="car" begin="0" end="3600" vehsPerHour="314" from="222151618#5" to="5686883#1" departLane="best" departSpeed="max"/>
  <flow id="flow_4" type="car" begin="0" end="3600" vehsPerHour="8" from="61760482#0" to="-222151618#5" departLane="best" departSpeed="max"/>
  <flow id="flow_5" type="car" begin="0" end="3600" vehsPerHour="92" from="61760482#0" to="5080129#1" departLane="best" departSpeed="max"/>
  <flow id="flow_6" type="car" begin="0" end="3600" vehsPerHour="37" from="223420013#1" to="5686883#1" departLane="best" departSpeed="max"/>
  <flow id="flow_7" type="car" begin="0" end="3600" vehsPerHour="94" from="223420013#1" to="5686885#1" departLane="best" departSpeed="max"/>
  <flow id="flow_8" type="car" begin="0" end="3600" vehsPerHour="1" from="223420013#1" to="-222151618#5" departLane="best" departSpeed="max"/>
  <flow id="flow_9" type="car" begin="0" end="3600" vehsPerHour="46" from="-222151618#1" to="-1176470383#0" departLane="best" departSpeed="max"/>
  <flow id="flow_10" type="car" begin="0" end="3600" vehsPerHour="61" from="-222151618#1" to="-222151619#1" departLane="best" departSpeed="max"/>
  <flow id="flow_11" type="car" begin="0" end="3600" vehsPerHour="21" from="-222151618#1" to="222151622#1" departLane="best" departSpeed="max"/>
  <flow id="flow_12" type="car" begin="0" end="3600" vehsPerHour="22" from="222151619#1" to="222151622#1" departLane="best" departSpeed="max"/>
  <flow id="flow_13" type="car" begin="0" end="3600" vehsPerHour="196" from="222151619#1" to="222151618#1" departLane="best" departSpeed="max"/>
  <flow id="flow_14" type="car" begin="0" end="3600" vehsPerHour="14" from="222151619#1" to="-1176470383#0" departLane="best" departSpeed="max"/>
  <flow id="flow_15" type="car" begin="0" end="3600" vehsPerHour="60" from="222151621" to="-222151619#1" departLane="best" departSpeed="max"/>
  <flow id="flow_16" type="car" begin="0" end="3600" vehsPerHour="265" from="222151621" to="222151622#1" departLane="best" departSpeed="max"/>
  <flow id="flow_17" type="car" begin="0" end="3600" vehsPerHour="29" from="222151621" to="222151618#1" departLane="best" departSpeed="max"/>
  <flow id="flow_18" type="car" begin="0" end="3600" vehsPerHour="26" from="-222151622#1" to="222151618#1" departLane="best" departSpeed="max"/>
  <flow id="flow_19" type="car" begin="0" end="3600" vehsPerHour="591" from="-222151622#1" to="-1176470383#0" departLane="best" departSpeed="max"/>
  <flow id="flow_20" type="car" begin="0" end="3600" vehsPerHour="1" from="-222151622#1" to="-222151619#1" departLane="best" departSpeed="max"/>
  <flow id="flow_21" type="car" begin="0" end="3600" vehsPerHour="21" from="-222151619#1" to="-1263683890#1" departLane="best" departSpeed="max"/>
  <flow id="flow_22" type="car" begin="0" end="3600" vehsPerHour="134" from="-222151619#1" to="-285248539#6" departLane="best" departSpeed="max"/>
  <flow id="flow_23" type="car" begin="0" end="3600" vehsPerHour="45" from="-222151619#1" to="1263683889#1" departLane="best" departSpeed="max"/>
  <flow id="flow_24" type="car" begin="0" end="3600" vehsPerHour="17" from="285248539#6" to="1263683889#1" departLane="best" departSpeed="max"/>
  <flow id="flow_25" type="car" begin="0" end="3600" vehsPerHour="146" from="285248539#6" to="222151619#1" departLane="best" departSpeed="max"/>
  <flow id="flow_26" type="car" begin="0" end="3600" vehsPerHour="13" from="285248539#6" to="-1263683890#1" departLane="best" departSpeed="max"/>
  <flow id="flow_27" type="car" begin="0" end="3600" vehsPerHour="44" from="1263683890#1" to="-285248539#6" departLane="best" departSpeed="max"/>
  <flow id="flow_28" type="car" begin="0" end="3600" vehsPerHour="244" from="1263683890#1" to="1263683889#1" departLane="best" departSpeed="max"/>
  <flow id="flow_29" type="car" begin="0" end="3600" vehsPerHour="30" from="1263683890#1" to="222151619#1" departLane="best" departSpeed="max"/>
  <flow id="flow_30" type="car" begin="0" end="3600" vehsPerHour="80" from="-1263683889#1" to="222151619#1" departLane="best" departSpeed="max"/>
  <flow id="flow_31" type="car" begin="0" end="3600" vehsPerHour="568" from="-1263683889#1" to="-1263683890#1" departLane="best" departSpeed="max"/>
  <flow id="flow_32" type="car" begin="0" end="3600" vehsPerHour="9" from="-1263683889#1" to="-285248539#6" departLane="best" departSpeed="max"/>
  <flow id="flow_33" type="car" begin="0" end="3600" vehsPerHour="9" from="-222151618#4" to="-222151618#1" departLane="best" departSpeed="max"/>
  <flow id="flow_34" type="car" begin="0" end="3600" vehsPerHour="12" from="-222151618#4" to="-4652040#1" departLane="best" departSpeed="max"/>
  <flow id="flow_35" type="car" begin="0" end="3600" vehsPerHour="46" from="222151618#1" to="-4652040#1" departLane="best" departSpeed="max"/>
  <flow id="flow_36" type="car" begin="0" end="3600" vehsPerHour="328" from="5686881#0" to="-4652040#1" departLane="best" departSpeed="max"/>
  <flow id="flow_37" type="car" begin="0" end="3600" vehsPerHour="66" from="5686881#0" to="222151618#4" departLane="best" departSpeed="max"/>
  <flow id="flow_38" type="car" begin="0" end="3600" vehsPerHour="49" from="4652040#1" to="222151618#4" departLane="best" departSpeed="max"/>
  <flow id="flow_39" type="car" begin="0" end="3600" vehsPerHour="24" from="-4651746#1" to="28823583#1" departLane="best" departSpeed="max"/>
  <flow id="flow_40" type="car" begin="0" end="3600" vehsPerHour="378" from="-4651746#1" to="-5686834#2" departLane="best" departSpeed="max"/>
  <flow id="flow_41" type="car" begin="0" end="3600" vehsPerHour="41" from="-4651746#1" to="28823582#1" departLane="best" departSpeed="max"/>
  <flow id="flow_42" type="car" begin="0" end="3600" vehsPerHour="31" from="5686834#2" to="28823582#1" departLane="best" departSpeed="max"/>
  <flow id="flow_43" type="car" begin="0" end="3600" vehsPerHour="346" from="5686834#2" to="4651746#1" departLane="best" departSpeed="max"/>
  <flow id="flow_44" type="car" begin="0" end="3600" vehsPerHour="108" from="5686834#2" to="28823583#1" departLane="best" departSpeed="max"/>
  <flow id="flow_45" type="car" begin="0" end="3600" vehsPerHour="22" from="445862068#4" to="-5686834#2" departLane="best" departSpeed="max"/>
  <flow id="flow_46" type="car" begin="0" end="3600" vehsPerHour="310" from="445862068#4" to="28823582#1" departLane="best" departSpeed="max"/>
  <flow id="flow_47" type="car" begin="0" end="3600" vehsPerHour="2" from="445862068#4" to="4651746#1" departLane="best" departSpeed="max"/>
  <flow id="flow_48" type="car" begin="0" end="3600" vehsPerHour="54" from="30759232#0" to="4651746#1" departLane="best" departSpeed="max"/>
  <flow id="flow_49" type="car" begin="0" end="3600" vehsPerHour="503" from="30759232#0" to="28823583#1" departLane="best" departSpeed="max"/>
  <flow id="flow_50" type="car" begin="0" end="3600" vehsPerHour="1" from="30759232#0" to="-5686834#2" departLane="best" departSpeed="max"/>
  <flow id="flow_51" type="car" begin="0" end="3600" vehsPerHour="15" from="-547861653#3" to="-547861653#0" departLane="best" departSpeed="max"/>
  <flow id="flow_52" type="car" begin="0" end="3600" vehsPerHour="21" from="-547861653#3" to="541564301#1" departLane="best" departSpeed="max"/>
  <flow id="flow_53" type="car" begin="0" end="3600" vehsPerHour="56" from="547861653#0" to="541564301#1" departLane="best" departSpeed="max"/>
  <flow id="flow_54" type="car" begin="0" end="3600" vehsPerHour="2" from="547861653#0" to="547861653#3" departLane="best" departSpeed="max"/>
  <flow id="flow_55" type="car" begin="0" end="3600" vehsPerHour="1" from="541564302#2" to="-547861653#0" departLane="best" departSpeed="max"/>
  <flow id="flow_56" type="car" begin="0" end="3600" vehsPerHour="337" from="541564302#2" to="541564301#1" departLane="best" departSpeed="max"/>
  <flow id="flow_57" type="car" begin="0" end="3600" vehsPerHour="40" from="541564302#2" to="547861653#3" departLane="best" departSpeed="max"/>
  <flow id="flow_58" type="car" begin="0" end="3600" vehsPerHour="32" from="-541564301#1" to="547861653#3" departLane="best" departSpeed="max"/>
  <flow id="flow_59" type="car" begin="0" end="3600" vehsPerHour="60" from="-445865882#0" to="-493830471#6" departLane="best" departSpeed="max"/>
  <flow id="flow_60" type="car" begin="0" end="3600" vehsPerHour="299" from="-445865882#0" to="-1096900277#2" departLane="best" departSpeed="max"/>
  <flow id="flow_61" type="car" begin="0" end="3600" vehsPerHour="11" from="-445865882#0" to="493830469#1" departLane="best" departSpeed="max"/>
  <flow id="flow_62" type="car" begin="0" end="3600" vehsPerHour="66" from="1096900277#0" to="493830469#1" departLane="best" departSpeed="max"/>
  <flow id="flow_63" type="car" begin="0" end="3600" vehsPerHour="26" from="1096900277#0" to="-493830471#6" departLane="best" departSpeed="max"/>
  <flow id="flow_64" type="car" begin="0" end="3600" vehsPerHour="84" from="493830471#5" to="-1096900277#2" departLane="best" departSpeed="max"/>
  <flow id="flow_65" type="car" begin="0" end="3600" vehsPerHour="193" from="493830471#5" to="493830469#1" departLane="best" departSpeed="max"/>
  <flow id="flow_66" type="car" begin="0" end="3600" vehsPerHour="22" from="493830471#5" to="851809955#1" departLane="best" departSpeed="max"/>
  <flow id="flow_67" type="car" begin="0" end="3600" vehsPerHour="50" from="-493830469#2" to="851809955#1" departLane="best" departSpeed="max"/>
  <flow id="flow_68" type="car" begin="0" end="3600" vehsPerHour="371" from="-493830469#2" to="-493830471#6" departLane="best" departSpeed="max"/>
  <flow id="flow_69" type="car" begin="0" end="3600" vehsPerHour="58" from="-493830469#2" to="-1096900277#2" departLane="best" departSpeed="max"/>
</routes>
