<?xml version="1.0" encoding="UTF-8"?>

<!-- generated on 2026-02-28 19:18:14.120323 by Eclipse SUMO randomTrips.py v1_26_0+0000-fa7df22d7f1
<configuration>
    <net-file value="C:\Users\Yash Kapadia\OneDrive\Desktop\ece324-TANGO\sumo\network\osm.net.xml.gz"/>
    <output-trip-file value="C:\Users\Yash Kapadia\OneDrive\Desktop\ece324-TANGO\sumo\demand\random_trips.rou.xml"/>
    <route-file value="C:\Users\Yash Kapadia\OneDrive\Desktop\ece324-TANGO\sumo\demand\random_trips.rou.xml"/>
    <end value="60.0"/>
    <period value="2.0"/>
</configuration>
-->

<!-- generated on 2026-02-28T19:18:14.041449-05:00 by Eclipse SUMO duarouter 1.26.0
<duarouterConfiguration xmlns:xsi="http://www.w3.org/2001/XMLSchema-instance" xsi:noNamespaceSchemaLocation="http://sumo.dlr.de/xsd/duarouterConfiguration.xsd">

    <input>
        <net-file value="C:\Users\Yash Kapadia\OneDrive\Desktop\ece324-TANGO\sumo\network\osm.net.xml.gz"/>
        <route-files value="C:\Users\Yash Kapadia\OneDrive\Desktop\ece324-TANGO\sumo\demand\random_trips.rou.xml"/>
    </input>

    <output>
        <output-file value="C:\Users\Yash Kapadia\OneDrive\Desktop\ece324-TANGO\sumo\demand\random_trips.rou.xml"/>
        <alternatives-output value="NUL"/>
    </output>

    <time>
        <begin value="0"/>
        <end value="60.0"/>
    </time>

    <report>
        <no-warnings value="true"/>
        <ignore-errors value="true"/>
        <no-step-log value="true"/>
    </report>

</duarouterConfiguration>
-->

<routes xmlns:xsi="http://www.w3.org/2001/XMLSchema-instance" xsi:noNamespaceSchemaLocation="http://sumo.dlr.de/xsd/routes_file.xsd">
    <vehicle id="0" depart="0.00">
        <route edges="4651995#3 10070563#0 10070563#2 10070563#3 10070563#6 10070563#7 10070563#8 435775059#1 435775059#2 28823581#3 28823581#5 445862068#1 445862068#2 445862068#3 445862068#4 4651746#1 4651746#2 4651746#3 285248539#0 285248539#3 285248539#4 285248539#5 285248539#6 1263683889#1 10070564#0 10070564#2 10070564#3 10070564#4 10070564#5 -10070564#5"/>
    </vehicle>
    <vehicle id="1" depart="2.00">
        <route edges="-5686834#1 -5686834#0 -547861653#7 -547861653#6 -547861653#5 -547861653#4 -547861653#3 -547861653#0 -445865881 -547861654#0 -445865882#0 -493830471#6 -493830471#4 -493830471#3 -493830471#2"/>
    </vehicle>
    <vehicle id="2" depart="4.00">
        <route edges="493830469#1 296783426#0 296783426#2 296783426#3 -296783426#5 -296783426#2 -296783426#0 -493830469#2 851809955#1 445865882#1 547861654#1 547861653#0 547861653#3 547861653#4 547861653#5 547861653#6 547861653#7 5686834#0 5686834#1 5686834#2 28823583#1 34614459#0 4652000#1 4652000#2 4652000#3 4652000#4 4652000#5 4652003#4 4652003#5"/>
    </vehicle>
    <vehicle id="3" depart="6.00">
        <route edges="5686827#1 5686827#3 5686827#4 30759231#1 5686824#1 5686824#2 5686824#3 5686824#4 5686826#1 5686826#2 5686826#3 4652060#1 4652060#2 5686836#0 5686836#1 5686836#2 10070564#4 10070564#5 4675957#0 4675957#1 4675957#2 4675957#3 4675957#4 4675957#5 43887242#1 43887242#2 43887242#3 1451242402#0 -222151622#4 -222151622#2 -222151622#1"/>
    </vehicle>
    <vehicle id="4" depart="8.00">
        <route edges="222151618#5 -222151618#5 -222151618#4 -222151618#1 -222151619#1 -285248539#6 -285248539#5 -285248539#4 -285248539#3 -285248539#0 -4651746#3 -4651746#2 -4651746#1 -5686834#2 -5686834#1 -5686834#0 -547861653#7 -547861653#6 -547861653#5 -1455901064#0 -1160603349#0"/>
    </vehicle>
    <vehicle id="5" depart="10.00">
        <route edges="-493830469#2 851809955#1 445865882#1 547861654#1 547861653#0 547861653#3 547861653#4 547861653#5 547861653#6 547861653#7 5686834#0 5686834#1 5686834#2 28823582#1"/>
    </vehicle>
    <vehicle id="6" depart="12.00">
        <route edges="-1160603349#0 -5090593#1 5090593#1 1160603349#0 1160603349#1 547861653#5 547861653#6 547861653#7 5686834#0 5686834#1 5686834#2 28823583#1 34614459#0 4652000#1 4652000#2 4652000#3 4652000#4 4652000#5 -4652000#5 -4652000#4 -4652000#3"/>
    </vehicle>
    <vehicle id="7" depart="14.00">
        <route edges="4651997#6 10070563#0 10070563#2 10070563#3 24263685#3 24263685#5 4651986#1 4651982#5 519653918#0 519653918#1 435775056#1 435775056#2"/>
    </vehicle>
    <vehicle id="8" depart="16.00">
        <route edges="-493830471#2 4651997#0 4651997#3 4651997#5 4651997#6 10070563#0 10070563#2 10070563#3 10070563#6 10070563#7 10070563#8 435775059#1 435775059#2 28823581#3 28823581#5 445862068#1 445862068#2 445862068#3 445862068#4 4651746#1 4651746#2 4651746#3 285248539#0 285248539#3 285248539#4 285248539#5 285248539#6 1263683889#1 10070564#0 5686835#0 5686835#1 4652057#0 5686826#1 5686826#2 5686826#3 5686827#1 5686827#3 5686827#4 30759231#1 451650374#0"/>
    </vehicle>
    <vehicle id="9" depart="18.00">
        <route edges="547861653#3 547861653#4 -547861653#4 -547861653#3 -547861653#0 -445865881 -547861654#0 -445865880#0 -10070534 4651995#1 4651995#2 4651995#3 -4651997#6 -4651997#5 -10070562#1"/>
    </vehicle>
    <vehicle id="10" depart="20.00">
        <route edges="547861653#0 547861653#3 547861653#4 547861653#5 547861653#6 547861653#7 5686834#0 5686834#1 5686834#2 4651746#1 4651746#2 4651746#3 285248539#0 285248539#3 285248539#4 285248539#5 285248539#6 222151619#1 222151618#1 -4652040#1 -4652040#0 4652040#0"/>
    </vehicle>
    <vehicle id="11" depart="22.00">
        <route edges="10070563#2 10070563#3 10070563#6 10070563#7 10070563#8 435775059#1 435775059#2 28823581#3 28823581#5 445862068#1 445862068#2 445862068#3 445862068#4 4651746#1 4651746#2 4651746#3 285248539#0 -285248539#0 -4651746#3 -4651746#2 -4651746#1"/>
    </vehicle>
    <vehicle id="12" depart="24.00">
        <route edges="5686881#0 -222151618#1 -222151619#1 -285248539#6 -285248539#5 -285248539#4 -285248539#3 -285248539#0 -4651746#3 -4651746#2 -4651746#1 -5686834#2 -5686834#1 -5686834#0 -547861653#7 -547861653#6 -547861653#5 -547861653#4 -547861653#3 -547861653#0 -445865881 -547861654#0 -445865880#0 -10070534 4651995#1 4651995#2 4651995#3 10070563#0 10070563#2 10070563#3 10070563#6"/>
    </vehicle>
    <vehicle id="13" depart="26.00">
        <route edges="-22970017#1"/>
    </vehicle>
    <vehicle id="14" depart="28.00">
        <route edges="5686817#3 251675774#1 249842974#1 249842974#2 5686820#0 5686820#1 5686820#2 5686820#3 5686820#4 5122102#1 799520745 1292415000 -285248539#0 -4651746#3 -4651746#2 -4651746#1 -5686834#2 -5686834#1 -5686834#0 -547861653#7 -547861653#6 -547861653#5 4651982#1"/>
    </vehicle>
    <vehicle id="15" depart="30.00">
        <route edges="547861653#3 547861653#4 547861653#5 547861653#6 547861653#7 5686834#0 5686834#1 5686834#2 4651746#1 4651746#2 4651746#3 285248539#0 285248539#3 285248539#4 285248539#5 285248539#6 1263683889#1 10070564#0 10070564#2 10070564#3 10070564#4 10070564#5 4675957#0 4675957#1 4675957#2 4675957#3"/>
    </vehicle>
    <vehicle id="16" depart="32.00">
        <route edges="301674585 5686881#0 -4652040#1 -4652040#0 5686877#1 6694649#1 6694649#2"/>
    </vehicle>
    <vehicle id="17" depart="34.00">
        <route edges="1160603349#1 -547861653#4 -547861653#3 -547861653#0 -445865881 -547861654#0 -445865880#0 -10070534 4651995#1 4651995#2 4651995#3 10070563#0 10070563#2 10070563#3 10070563#6 10070563#7 10070563#8 435775059#1"/>
    </vehicle>
    <vehicle id="18" depart="36.00">
        <route edges="5686814#0 251675774#1 249842974#1 249842974#2 5686820#0 5686820#1 5686820#2 5686820#3 5686820#4 5122102#1 799520745 1292415000 -285248539#0 -4651746#3 -4651746#2 -4651746#1 -5686834#2 -5686834#1 -5686834#0 -547861653#7 -547861653#6 -547861653#5 4651982#1 4651982#2 4651982#3 4651982#5 4651993#1 24263685#5 4651986#1"/>
    </vehicle>
    <vehicle id="19" depart="38.00">
        <route edges="5686820#3 5686820#4 5122102#1 799520745 1292415000 -285248539#0 -4651746#3 -4651746#2 -4651746#1 28823583#1 34614459#0 445862068#1 445862068#2 445862068#3"/>
    </vehicle>
    <vehicle id="20" depart="40.00">
        <route edges="4652041#0 -4652041#0 133596276#1 -133596276#1"/>
    </vehicle>
    <vehicle id="21" depart="42.00">
        <route edges="-493830471#4 -493830471#3 -493830471#2 4651997#0 4651997#3 4651997#5 4651997#6 10070563#0 10070563#2 10070563#3 10070563#6 10070563#7 10070563#8 435775059#1 435775059#2 28823581#3 28823581#5 445862068#1 445862068#2 445862068#3 445862068#4 4651746#1 4651746#2 4651746#3 285248539#0 285248539#3 285248539#4 285248539#5 285248539#6 222151619#1 222151618#1 -4652040#1 -4652040#0 -5686878#4 -5686878#3"/>
    </vehicle>
    <vehicle id="22" depart="44.00">
        <route edges="-222151622#1 -222151619#1 -285248539#6 -285248539#5 -285248539#4 -285248539#3 -285248539#0 -4651746#3 -4651746#2 -4651746#1 -5686834#2 -5686834#1 -5686834#0 -547861653#7 -547861653#6 -547861653#5 -547861653#4 -547861653#3 -547861653#0 -445865881 -547861654#0 -445865882#0 -493830471#6"/>
    </vehicle>
    <vehicle id="23" depart="46.00">
        <route edges="4651995#2 4651995#3 10070563#0 10070563#2 10070563#3 10070563#6 10070563#7 10070563#8 435775059#1 435775059#2 28823581#3 28823581#5 445862068#1 445862068#2 445862068#3 445862068#4 4651746#1 4651746#2 4651746#3 285248539#0 285248539#3 285248539#4 285248539#5 285248539#6 1263683889#1 10070564#0 10070564#2 10070564#3 10070564#4 10070564#5 10070564#6"/>
    </vehicle>
    <vehicle id="24" depart="48.00">
        <route edges="1096900277#0 851809955#1 445865882#1 547861654#1 547861653#0 547861653#3 547861653#4 547861653#5 547861653#6 547861653#7 5686834#0 5686834#1 5686834#2 4651746#1 4651746#2 4651746#3 285248539#0 285248539#3 285248539#4 285248539#5 285248539#6 222151619#1 222151618#1 -4652040#1 -4652040#0"/>
    </vehicle>
    <vehicle id="25" depart="50.00">
        <route edges="-547861654#0 445865882#1 547861654#1 547861653#0 547861653#3 547861653#4 547861653#5 547861653#6 547861653#7 5686834#0 5686834#1 5686834#2 4651746#1 4651746#2 4651746#3 285248539#0 285248539#3 285248539#4 285248539#5 285248539#6 222151619#1 222151618#1 -4652040#1 -4652040#0 -5686878#4 -5686878#3 -5686878#2 -5686878#1 5686878#0 5686878#2"/>
    </vehicle>
    <vehicle id="26" depart="52.00">
        <route edges="4651997#5 4651997#6 -4651995#3 -4651995#2 -4651995#1 10070534 547845030#1 445865882#1 547861654#1 547861653#0 547861653#3 547861653#4 4651982#1 4651982#2 4651982#3"/>
    </vehicle>
    <vehicle id="27" depart="54.00">
        <route edges="-4651995#3 -4651995#2 -4651995#1 10070534 547845030#1 445865882#1 547861654#1 547861653#0 547861653#3 547861653#4 547861653#5 547861653#6 547861653#7 5686834#0 5686834#1 5686834#2 4651746#1 4651746#2 4651746#3 285248539#0 285248539#3 285248539#4 285248539#5 285248539#6 1263683889#1 10070564#0 10070564#2 10070564#3 10070564#4 10070564#5 4675957#0 4675957#1 4675957#2 4675957#3"/>
    </vehicle>
    <vehicle id="28" depart="56.00">
        <route edges="-4651994#2 -4651994#1 547861653#0 547861653#3 547861653#4 547861653#5 547861653#6 547861653#7 5686834#0 5686834#1 5686834#2 28823583#1 5686816#1 5686816#2 5122102#1 799520745 1292415000"/>
    </vehicle>
    <vehicle id="29" depart="58.00">
        <route edges="799520745 1292415000 -285248539#0 -4651746#3 -4651746#2 -4651746#1 -5686834#2 -5686834#1 -5686834#0 -547861653#7 -547861653#6 -547861653#5 -547861653#4 -547861653#3 -547861653#0 -445865881 -547861654#0 -445865882#0 -493830471#6 -493830471#4 -493830471#3 -493830471#2 4651997#0"/>
    </vehicle>
</routes>
